copy /Y n:\Deltabox\Bulletin\mooiman\delft3d\Delft3D_FM_manuals\DeltaShell_User_Manual.pdf setup\DeltaShell\Manuals\
copy /Y n:\Deltabox\Bulletin\mooiman\delft3d\Delft3D_FM_manuals\DeltaShell_Technical_Manual_Architecture.pdf setup\DeltaShell\Manuals\

copy /Y n:\Deltabox\Bulletin\mooiman\delft3d\Delft3D_FM_manuals\Delft3D-FM_D-Wave_User_Manual.pdf setup\Plugins\Wave\Manuals\
copy /Y n:\Deltabox\Bulletin\mooiman\delft3d\Delft3D_FM_manuals\Delft3D-FM_D-Flow_FM_User_Manual.pdf setup\Plugins\FM\Manuals\
copy /Y n:\Deltabox\Bulletin\mooiman\delft3d\Delft3D_FM_manuals\Delft3D-FM_D-Flow_FM_Technical_Reference.pdf setup\Plugins\FM\Manuals\

copy /Y n:\Deltabox\Bulletin\mooiman\delft3d\Delft3D_FM_manuals\Delft3D-FM_D-Water_Quality_DIDO_User_Manual.pdf lib\Plugins\DelftModels\DeltaShell.Plugins.DelftModels.WaterQualityModel\dido\manuals\
copy /Y n:\Deltabox\Bulletin\mooiman\delft3d\Delft3D_FM_manuals\Delft3D-FM_D-Water_Quality_User_Manual.pdf setup\Plugins\Waq\Manuals\
copy /Y n:\Deltabox\Bulletin\mooiman\delft3d\Delft3D_FM_manuals\Delft3D-FM_D-Water_Quality_Processes_Technical_Reference_Manual.pdf setup\Plugins\Waq\Manuals\
copy /Y n:\Deltabox\Bulletin\mooiman\delft3d\Delft3D_FM_manuals\Delft3D-FM_D-Water_Quality_Input_File_Description.pdf setup\Plugins\Waq\Manuals\

copy /Y n:\Deltabox\Bulletin\mooiman\delft3d\Delft3D_FM_manuals\RGFGRID_User_Manual.pdf lib\Plugins\FMSuite\DeltaShell.Plugins.FMSuite.Common.Gui\rgfgrid\manuals\
copy /Y n:\Deltabox\Bulletin\mooiman\delft3d\Delft3D_FM_manuals\D-RTC_User_Manual.pdf setup\Plugins\RealTimeControl\Manuals\
copy /Y n:\Deltabox\Bulletin\mooiman\delft3d\Delft3D_FM_manuals\RTC-Tools_Reference_Manual.pdf setup\Plugins\RealTimeControl\Manuals\

