<?xml version="1.0" encoding="utf-8"?>
<Include>

  <Shortcut Id="DWater_Quality_Input_File_Description_Shortcut" Name="!(loc.WaqFileManualName)" Target="[BINDIR]D-Water_Quality_Input_File_Description.pdf" WorkingDirectory="BINDIR"/>
  <Shortcut Id="DWater_Quality_Processes_Technical_Reference_Manual_Shortcut" Name="!(loc.WaqReferenceManualName)" Target="[BINDIR]D-Water_Quality_Processes_Technical_Reference_Manual.pdf" WorkingDirectory="BINDIR"/>
  <Shortcut Id="DWater_Quality_User_Manual_Shortcut" Name="!(loc.WaqUserManualName)" Target="[BINDIR]D-Water_Quality_User_Manual.pdf" WorkingDirectory="BINDIR"/>

  <!--
  TODO: agrhyd is not yet ready, so DIDO should not be included.
  <Shortcut Id="DIDOUserManualShortcut" Name="DIDO User Manual" Target="[BINDIR]Delft3D-FM_D-Water_Quality_DIDO_User_Manual.pdf" WorkingDirectory="BINDIR"/>
  -->

</Include>
